rawData/ieee730_1ph/Loads-empties.dss
// Contains even non-empty loads (436 loads plus 294 'empty loads' which have kW=0.000000 and kVAr=0.000000)
New load.S1P Bus=1.1 Phases=1 Model=1 kv=0.24 kw=0.000000 kvar=0.000000 Vminpu=0.95 Vmaxpu=1.05 Daily=LoadShapeLoadDefault
New load.S2P Bus=2.1 Phases=1 Model=1 kv=0.24 kw=0.000000 kvar=0.000000 Vminpu=0.95 Vmaxpu=1.05 Daily=LoadShapeLoadDefault
New load.S3P Bus=3.1 Phases=1 Model=1 kv=0.24 kw=0.000000 kvar=0.000000 Vminpu=0.95 Vmaxpu=1.05 Daily=LoadShapeLoadDefault
New load.S4P Bus=4.1 Phases=1 Model=1 kv=0.24 kw=0.000000 kvar=0.000000 Vminpu=0.95 Vmaxpu=1.05 Daily=LoadShapeLoadDefault
New load.S5P Bus=5.1 Phases=1 Model=1 kv=0.24 kw=0.000000 kvar=0.000000 Vminpu=0.95 Vmaxpu=1.05 Daily=LoadShapeLoadDefault
New load.S6P Bus=6.1 Phases=1 Model=1 kv=0.24 kw=0.000000 kvar=0.000000 Vminpu=0.95 Vmaxpu=1.05 Daily=LoadShapeLoadDefault
New load.S7P Bus=7.1 Phases=1 Model=1 kv=0.24 kw=0.000000 kvar=0.000000 Vminpu=0.95 Vmaxpu=1.05 Daily=LoadShapeLoadDefault
New load.S8P Bus=8.1 Phases=1 Model=1 kv=0.24 kw=0.000000 kvar=0.000000 Vminpu=0.95 Vmaxpu=1.05 Daily=LoadShapeLoadDefault
New load.S9P Bus=9.1 Phases=1 Model=1 kv=0.24 kw=0.000000 kvar=0.000000 Vminpu=0.95 Vmaxpu=1.05 Daily=LoadShapeLoadDefault
New load.S10P Bus=10.1 Phases=1 Model=1 kv=0.24 kw=0.000000 kvar=0.000000 Vminpu=0.95 Vmaxpu=1.05 Daily=LoadShapeLoadDefault
New load.S11P Bus=11.1 Phases=1 Model=1 kv=0.24 kw=0.000000 kvar=0.000000 Vminpu=0.95 Vmaxpu=1.05 Daily=LoadShapeLoadDefault
New load.S12P Bus=12.1 Phases=1 Model=1 kv=0.24 kw=0.000000 kvar=0.000000 Vminpu=0.95 Vmaxpu=1.05 Daily=LoadShapeLoadDefault
New load.S13P Bus=13.1 Phases=1 Model=1 kv=0.24 kw=0.000000 kvar=0.000000 Vminpu=0.95 Vmaxpu=1.05 Daily=LoadShapeLoadDefault
New load.S14P Bus=14.1 Phases=1 Model=1 kv=0.24 kw=0.000000 kvar=0.000000 Vminpu=0.95 Vmaxpu=1.05 Daily=LoadShapeLoadDefault
New load.S15P Bus=15.1 Phases=1 Model=1 kv=0.24 kw=0.000000 kvar=0.000000 Vminpu=0.95 Vmaxpu=1.05 Daily=LoadShapeLoadDefault
New load.S16P Bus=16.1 Phases=1 Model=1 kv=0.24 kw=0.000000 kvar=0.000000 Vminpu=0.95 Vmaxpu=1.05 Daily=LoadShapeLoadDefault
New load.S17P Bus=17.1 Phases=1 Model=1 kv=0.24 kw=0.000000 kvar=0.000000 Vminpu=0.95 Vmaxpu=1.05 Daily=LoadShapeLoadDefault
New load.S18P Bus=18.1 Phases=1 Model=1 kv=0.24 kw=0.000000 kvar=0.000000 Vminpu=0.95 Vmaxpu=1.05 Daily=LoadShapeLoadDefault
New load.S19P Bus=19.1 Phases=1 Model=1 kv=0.24 kw=0.000000 kvar=0.000000 Vminpu=0.95 Vmaxpu=1.05 Daily=LoadShapeLoadDefault
New load.S20P Bus=20.1 Phases=1 Model=1 kv=0.24 kw=0.000000 kvar=0.000000 Vminpu=0.95 Vmaxpu=1.05 Daily=LoadShapeLoadDefault
New load.S21P Bus=21.1 Phases=1 Model=1 kv=0.24 kw=0.000000 kvar=0.000000 Vminpu=0.95 Vmaxpu=1.05 Daily=LoadShapeLoadDefault
New load.S22P Bus=22.1 Phases=1 Model=1 kv=0.24 kw=0.000000 kvar=0.000000 Vminpu=0.95 Vmaxpu=1.05 Daily=LoadShapeLoadDefault
New load.S23P Bus=23.1 Phases=1 Model=1 kv=0.24 kw=0.000000 kvar=0.000000 Vminpu=0.95 Vmaxpu=1.05 Daily=LoadShapeLoadDefault
New load.S24P Bus=24.1 Phases=1 Model=1 kv=0.24 kw=0.000000 kvar=0.000000 Vminpu=0.95 Vmaxpu=1.05 Daily=LoadShapeLoadDefault
New load.S25P Bus=25.1 Phases=1 Model=1 kv=0.24 kw=0.000000 kvar=0.000000 Vminpu=0.95 Vmaxpu=1.05 Daily=LoadShapeLoadDefault
New load.S26P Bus=26.1 Phases=1 Model=1 kv=0.24 kw=0.000000 kvar=0.000000 Vminpu=0.95 Vmaxpu=1.05 Daily=LoadShapeLoadDefault
New load.S27P Bus=27.1 Phases=1 Model=1 kv=0.24 kw=0.000000 kvar=0.000000 Vminpu=0.95 Vmaxpu=1.05 Daily=LoadShapeLoadDefault
New load.S28P Bus=28.1 Phases=1 Model=1 kv=0.24 kw=0.000000 kvar=0.000000 Vminpu=0.95 Vmaxpu=1.05 Daily=LoadShapeLoadDefault
New load.S29P Bus=29.1 Phases=1 Model=1 kv=0.24 kw=0.000000 kvar=0.000000 Vminpu=0.95 Vmaxpu=1.05 Daily=LoadShapeLoadDefault
New load.S30P Bus=30.1 Phases=1 Model=1 kv=0.24 kw=0.000000 kvar=0.000000 Vminpu=0.95 Vmaxpu=1.05 Daily=LoadShapeLoadDefault
New load.S31P Bus=31.1 Phases=1 Model=1 kv=0.24 kw=0.000000 kvar=0.000000 Vminpu=0.95 Vmaxpu=1.05 Daily=LoadShapeLoadDefault
New load.S32P Bus=32.1 Phases=1 Model=1 kv=0.24 kw=0.000000 kvar=0.000000 Vminpu=0.95 Vmaxpu=1.05 Daily=LoadShapeLoadDefault
New load.S33P Bus=33.1 Phases=1 Model=1 kv=0.24 kw=0.000000 kvar=0.000000 Vminpu=0.95 Vmaxpu=1.05 Daily=LoadShapeLoadDefault
New load.S34P Bus=34.1 Phases=1 Model=1 kv=0.24 kw=0.000000 kvar=0.000000 Vminpu=0.95 Vmaxpu=1.05 Daily=LoadShapeLoadDefault
New load.S35P Bus=35.1 Phases=1 Model=1 kv=0.24 kw=0.000000 kvar=0.000000 Vminpu=0.95 Vmaxpu=1.05 Daily=LoadShapeLoadDefault
New load.S36P Bus=36.1 Phases=1 Model=1 kv=0.24 kw=0.000000 kvar=0.000000 Vminpu=0.95 Vmaxpu=1.05 Daily=LoadShapeLoadDefault
New load.S37P Bus=37.1 Phases=1 Model=1 kv=0.24 kw=0.000000 kvar=0.000000 Vminpu=0.95 Vmaxpu=1.05 Daily=LoadShapeLoadDefault
New load.S38P Bus=38.1 Phases=1 Model=1 kv=0.24 kw=0.000000 kvar=0.000000 Vminpu=0.95 Vmaxpu=1.05 Daily=LoadShapeLoadDefault
New load.S39P Bus=39.1 Phases=1 Model=1 kv=0.24 kw=0.000000 kvar=0.000000 Vminpu=0.95 Vmaxpu=1.05 Daily=LoadShapeLoadDefault
New load.S40P Bus=40.1 Phases=1 Model=1 kv=0.24 kw=0.000000 kvar=0.000000 Vminpu=0.95 Vmaxpu=1.05 Daily=LoadShapeLoadDefault
New load.S41P Bus=41.1 Phases=1 Model=1 kv=0.24 kw=0.831000 kvar=0.277000 Vminpu=0.95 Vmaxpu=1.05 Daily=LoadShapeLoadDefault
New load.S42P Bus=42.1 Phases=1 Model=1 kv=0.24 kw=0.734000 kvar=0.245000 Vminpu=0.95 Vmaxpu=1.05 Daily=LoadShapeLoadDefault
New load.S43P Bus=43.1 Phases=1 Model=1 kv=0.24 kw=0.691000 kvar=0.230000 Vminpu=0.95 Vmaxpu=1.05 Daily=LoadShapeLoadDefault
New load.S44P Bus=44.1 Phases=1 Model=1 kv=0.24 kw=0.876000 kvar=0.292000 Vminpu=0.95 Vmaxpu=1.05 Daily=LoadShapeLoadDefault
New load.S45P Bus=45.1 Phases=1 Model=1 kv=0.24 kw=0.912000 kvar=0.304000 Vminpu=0.95 Vmaxpu=1.05 Daily=LoadShapeLoadDefault
New load.S46P Bus=46.1 Phases=1 Model=1 kv=0.24 kw=0.692000 kvar=0.231000 Vminpu=0.95 Vmaxpu=1.05 Daily=LoadShapeLoadDefault
New load.S47P Bus=47.1 Phases=1 Model=1 kv=0.24 kw=0.792000 kvar=0.264000 Vminpu=0.95 Vmaxpu=1.05 Daily=LoadShapeLoadDefault
New load.S48P Bus=48.1 Phases=1 Model=1 kv=0.24 kw=1.512000 kvar=0.504000 Vminpu=0.95 Vmaxpu=1.05 Daily=LoadShapeLoadDefault
New load.S49P Bus=49.1 Phases=1 Model=1 kv=0.24 kw=1.250000 kvar=0.417000 Vminpu=0.95 Vmaxpu=1.05 Daily=LoadShapeLoadDefault
New load.S50P Bus=50.1 Phases=1 Model=1 kv=0.24 kw=0.822000 kvar=0.274000 Vminpu=0.95 Vmaxpu=1.05 Daily=LoadShapeLoadDefault
New load.S51P Bus=51.1 Phases=1 Model=1 kv=0.24 kw=0.843000 kvar=0.281000 Vminpu=0.95 Vmaxpu=1.05 Daily=LoadShapeLoadDefault
New load.S52P Bus=52.1 Phases=1 Model=1 kv=0.24 kw=0.884000 kvar=0.295000 Vminpu=0.95 Vmaxpu=1.05 Daily=LoadShapeLoadDefault
New load.S53P Bus=53.1 Phases=1 Model=1 kv=0.24 kw=0.000000 kvar=0.000000 Vminpu=0.95 Vmaxpu=1.05 Daily=LoadShapeLoadDefault
New load.S54P Bus=54.1 Phases=1 Model=1 kv=0.24 kw=0.000000 kvar=0.000000 Vminpu=0.95 Vmaxpu=1.05 Daily=LoadShapeLoadDefault
New load.S55P Bus=55.1 Phases=1 Model=1 kv=0.24 kw=0.000000 kvar=0.000000 Vminpu=0.95 Vmaxpu=1.05 Daily=LoadShapeLoadDefault
New load.S56P Bus=56.1 Phases=1 Model=1 kv=0.24 kw=0.000000 kvar=0.000000 Vminpu=0.95 Vmaxpu=1.05 Daily=LoadShapeLoadDefault
New load.S57P Bus=57.1 Phases=1 Model=1 kv=0.24 kw=0.000000 kvar=0.000000 Vminpu=0.95 Vmaxpu=1.05 Daily=LoadShapeLoadDefault
New load.S58P Bus=58.1 Phases=1 Model=1 kv=0.24 kw=0.000000 kvar=0.000000 Vminpu=0.95 Vmaxpu=1.05 Daily=LoadShapeLoadDefault
New load.S59P Bus=59.1 Phases=1 Model=1 kv=0.24 kw=1.038000 kvar=0.346000 Vminpu=0.95 Vmaxpu=1.05 Daily=LoadShapeLoadDefault
New load.S60P Bus=60.1 Phases=1 Model=1 kv=0.24 kw=2.373000 kvar=0.791000 Vminpu=0.95 Vmaxpu=1.05 Daily=LoadShapeLoadDefault
New load.S61P Bus=61.1 Phases=1 Model=1 kv=0.24 kw=1.510000 kvar=0.503000 Vminpu=0.95 Vmaxpu=1.05 Daily=LoadShapeLoadDefault
New load.S62P Bus=62.1 Phases=1 Model=1 kv=0.24 kw=1.617000 kvar=0.539000 Vminpu=0.95 Vmaxpu=1.05 Daily=LoadShapeLoadDefault
New load.S63P Bus=63.1 Phases=1 Model=1 kv=0.24 kw=1.894000 kvar=0.631000 Vminpu=0.95 Vmaxpu=1.05 Daily=LoadShapeLoadDefault
New load.S64P Bus=64.1 Phases=1 Model=1 kv=0.24 kw=1.321000 kvar=0.440000 Vminpu=0.95 Vmaxpu=1.05 Daily=LoadShapeLoadDefault
New load.S65P Bus=65.1 Phases=1 Model=1 kv=0.24 kw=2.586000 kvar=0.862000 Vminpu=0.95 Vmaxpu=1.05 Daily=LoadShapeLoadDefault
New load.S66P Bus=66.1 Phases=1 Model=1 kv=0.24 kw=1.267000 kvar=0.422000 Vminpu=0.95 Vmaxpu=1.05 Daily=LoadShapeLoadDefault
New load.S67P Bus=67.1 Phases=1 Model=1 kv=0.24 kw=1.275000 kvar=0.425000 Vminpu=0.95 Vmaxpu=1.05 Daily=LoadShapeLoadDefault
New load.S68P Bus=68.1 Phases=1 Model=1 kv=0.24 kw=1.950000 kvar=0.650000 Vminpu=0.95 Vmaxpu=1.05 Daily=LoadShapeLoadDefault
New load.S69P Bus=69.1 Phases=1 Model=1 kv=0.24 kw=0.000000 kvar=0.000000 Vminpu=0.95 Vmaxpu=1.05 Daily=LoadShapeLoadDefault
New load.S70P Bus=70.1 Phases=1 Model=1 kv=0.24 kw=0.000000 kvar=0.000000 Vminpu=0.95 Vmaxpu=1.05 Daily=LoadShapeLoadDefault
New load.S71P Bus=71.1 Phases=1 Model=1 kv=0.24 kw=0.000000 kvar=0.000000 Vminpu=0.95 Vmaxpu=1.05 Daily=LoadShapeLoadDefault
New load.S72P Bus=72.1 Phases=1 Model=1 kv=0.24 kw=0.000000 kvar=0.000000 Vminpu=0.95 Vmaxpu=1.05 Daily=LoadShapeLoadDefault
New load.S73P Bus=73.1 Phases=1 Model=1 kv=0.24 kw=0.000000 kvar=0.000000 Vminpu=0.95 Vmaxpu=1.05 Daily=LoadShapeLoadDefault
New load.S74P Bus=74.1 Phases=1 Model=1 kv=0.24 kw=2.034000 kvar=0.678000 Vminpu=0.95 Vmaxpu=1.05 Daily=LoadShapeLoadDefault
New load.S75P Bus=75.1 Phases=1 Model=1 kv=0.24 kw=1.349000 kvar=0.450000 Vminpu=0.95 Vmaxpu=1.05 Daily=LoadShapeLoadDefault
New load.S76P Bus=76.1 Phases=1 Model=1 kv=0.24 kw=1.679000 kvar=0.560000 Vminpu=0.95 Vmaxpu=1.05 Daily=LoadShapeLoadDefault
New load.S77P Bus=77.1 Phases=1 Model=1 kv=0.24 kw=1.324000 kvar=0.441000 Vminpu=0.95 Vmaxpu=1.05 Daily=LoadShapeLoadDefault
New load.S78P Bus=78.1 Phases=1 Model=1 kv=0.24 kw=1.377000 kvar=0.459000 Vminpu=0.95 Vmaxpu=1.05 Daily=LoadShapeLoadDefault
New load.S79P Bus=79.1 Phases=1 Model=1 kv=0.24 kw=1.808000 kvar=0.603000 Vminpu=0.95 Vmaxpu=1.05 Daily=LoadShapeLoadDefault
New load.S80P Bus=80.1 Phases=1 Model=1 kv=0.24 kw=2.042000 kvar=0.681000 Vminpu=0.95 Vmaxpu=1.05 Daily=LoadShapeLoadDefault
New load.S81P Bus=81.1 Phases=1 Model=1 kv=0.24 kw=2.015000 kvar=0.672000 Vminpu=0.95 Vmaxpu=1.05 Daily=LoadShapeLoadDefault
New load.S82P Bus=82.1 Phases=1 Model=1 kv=0.24 kw=0.000000 kvar=0.000000 Vminpu=0.95 Vmaxpu=1.05 Daily=LoadShapeLoadDefault
New load.S83P Bus=83.1 Phases=1 Model=1 kv=0.24 kw=0.000000 kvar=0.000000 Vminpu=0.95 Vmaxpu=1.05 Daily=LoadShapeLoadDefault
New load.S84P Bus=84.1 Phases=1 Model=1 kv=0.24 kw=0.000000 kvar=0.000000 Vminpu=0.95 Vmaxpu=1.05 Daily=LoadShapeLoadDefault
New load.S85P Bus=85.1 Phases=1 Model=1 kv=0.24 kw=0.000000 kvar=0.000000 Vminpu=0.95 Vmaxpu=1.05 Daily=LoadShapeLoadDefault
New load.S86P Bus=86.1 Phases=1 Model=1 kv=0.24 kw=0.000000 kvar=0.000000 Vminpu=0.95 Vmaxpu=1.05 Daily=LoadShapeLoadDefault
New load.S87P Bus=87.1 Phases=1 Model=1 kv=0.24 kw=1.387000 kvar=0.462000 Vminpu=0.95 Vmaxpu=1.05 Daily=LoadShapeLoadDefault
New load.S88P Bus=88.1 Phases=1 Model=1 kv=0.24 kw=1.363000 kvar=0.454000 Vminpu=0.95 Vmaxpu=1.05 Daily=LoadShapeLoadDefault
New load.S89P Bus=89.1 Phases=1 Model=1 kv=0.24 kw=1.301000 kvar=0.434000 Vminpu=0.95 Vmaxpu=1.05 Daily=LoadShapeLoadDefault
New load.S90P Bus=90.1 Phases=1 Model=1 kv=0.24 kw=1.339000 kvar=0.446000 Vminpu=0.95 Vmaxpu=1.05 Daily=LoadShapeLoadDefault
New load.S91P Bus=91.1 Phases=1 Model=1 kv=0.24 kw=1.376000 kvar=0.459000 Vminpu=0.95 Vmaxpu=1.05 Daily=LoadShapeLoadDefault
New load.S92P Bus=92.1 Phases=1 Model=1 kv=0.24 kw=1.206000 kvar=0.402000 Vminpu=0.95 Vmaxpu=1.05 Daily=LoadShapeLoadDefault
New load.S93P Bus=93.1 Phases=1 Model=1 kv=0.24 kw=1.384000 kvar=0.461000 Vminpu=0.95 Vmaxpu=1.05 Daily=LoadShapeLoadDefault
New load.S94P Bus=94.1 Phases=1 Model=1 kv=0.24 kw=2.939000 kvar=0.980000 Vminpu=0.95 Vmaxpu=1.05 Daily=LoadShapeLoadDefault
New load.S95P Bus=95.1 Phases=1 Model=1 kv=0.24 kw=0.000000 kvar=0.000000 Vminpu=0.95 Vmaxpu=1.05 Daily=LoadShapeLoadDefault
New load.S96P Bus=96.1 Phases=1 Model=1 kv=0.24 kw=0.000000 kvar=0.000000 Vminpu=0.95 Vmaxpu=1.05 Daily=LoadShapeLoadDefault
New load.S97P Bus=97.1 Phases=1 Model=1 kv=0.24 kw=0.000000 kvar=0.000000 Vminpu=0.95 Vmaxpu=1.05 Daily=LoadShapeLoadDefault
New load.S98P Bus=98.1 Phases=1 Model=1 kv=0.24 kw=0.000000 kvar=0.000000 Vminpu=0.95 Vmaxpu=1.05 Daily=LoadShapeLoadDefault
New load.S99P Bus=99.1 Phases=1 Model=1 kv=0.24 kw=0.000000 kvar=0.000000 Vminpu=0.95 Vmaxpu=1.05 Daily=LoadShapeLoadDefault
New load.S100P Bus=100.1 Phases=1 Model=1 kv=0.24 kw=0.983000 kvar=0.328000 Vminpu=0.95 Vmaxpu=1.05 Daily=LoadShapeLoadDefault
New load.S101P Bus=101.1 Phases=1 Model=1 kv=0.24 kw=2.582000 kvar=0.861000 Vminpu=0.95 Vmaxpu=1.05 Daily=LoadShapeLoadDefault
New load.S102P Bus=102.1 Phases=1 Model=1 kv=0.24 kw=2.168000 kvar=0.723000 Vminpu=0.95 Vmaxpu=1.05 Daily=LoadShapeLoadDefault
New load.S103P Bus=103.1 Phases=1 Model=1 kv=0.24 kw=1.496000 kvar=0.499000 Vminpu=0.95 Vmaxpu=1.05 Daily=LoadShapeLoadDefault
New load.S104P Bus=104.1 Phases=1 Model=1 kv=0.24 kw=1.570000 kvar=0.523000 Vminpu=0.95 Vmaxpu=1.05 Daily=LoadShapeLoadDefault
New load.S105P Bus=105.1 Phases=1 Model=1 kv=0.24 kw=2.161000 kvar=0.720000 Vminpu=0.95 Vmaxpu=1.05 Daily=LoadShapeLoadDefault
New load.S106P Bus=106.1 Phases=1 Model=1 kv=0.24 kw=2.857000 kvar=0.952000 Vminpu=0.95 Vmaxpu=1.05 Daily=LoadShapeLoadDefault
New load.S107P Bus=107.1 Phases=1 Model=1 kv=0.24 kw=0.692000 kvar=0.231000 Vminpu=0.95 Vmaxpu=1.05 Daily=LoadShapeLoadDefault
New load.S108P Bus=108.1 Phases=1 Model=1 kv=0.24 kw=0.000000 kvar=0.000000 Vminpu=0.95 Vmaxpu=1.05 Daily=LoadShapeLoadDefault
New load.S109P Bus=109.1 Phases=1 Model=1 kv=0.24 kw=0.000000 kvar=0.000000 Vminpu=0.95 Vmaxpu=1.05 Daily=LoadShapeLoadDefault
New load.S110P Bus=110.1 Phases=1 Model=1 kv=0.24 kw=0.000000 kvar=0.000000 Vminpu=0.95 Vmaxpu=1.05 Daily=LoadShapeLoadDefault
New load.S111P Bus=111.1 Phases=1 Model=1 kv=0.24 kw=0.000000 kvar=0.000000 Vminpu=0.95 Vmaxpu=1.05 Daily=LoadShapeLoadDefault
New load.S112P Bus=112.1 Phases=1 Model=1 kv=0.24 kw=0.000000 kvar=0.000000 Vminpu=0.95 Vmaxpu=1.05 Daily=LoadShapeLoadDefault
New load.S113P Bus=113.1 Phases=1 Model=1 kv=0.24 kw=0.000000 kvar=0.000000 Vminpu=0.95 Vmaxpu=1.05 Daily=LoadShapeLoadDefault
New load.S114P Bus=114.1 Phases=1 Model=1 kv=0.24 kw=0.000000 kvar=0.000000 Vminpu=0.95 Vmaxpu=1.05 Daily=LoadShapeLoadDefault
New load.S115P Bus=115.1 Phases=1 Model=1 kv=0.24 kw=1.561000 kvar=0.520000 Vminpu=0.95 Vmaxpu=1.05 Daily=LoadShapeLoadDefault
New load.S116P Bus=116.1 Phases=1 Model=1 kv=0.24 kw=0.846000 kvar=0.282000 Vminpu=0.95 Vmaxpu=1.05 Daily=LoadShapeLoadDefault
New load.S117P Bus=117.1 Phases=1 Model=1 kv=0.24 kw=0.795000 kvar=0.265000 Vminpu=0.95 Vmaxpu=1.05 Daily=LoadShapeLoadDefault
New load.S118P Bus=118.1 Phases=1 Model=1 kv=0.24 kw=2.373000 kvar=0.791000 Vminpu=0.95 Vmaxpu=1.05 Daily=LoadShapeLoadDefault
New load.S119P Bus=119.1 Phases=1 Model=1 kv=0.24 kw=2.066000 kvar=0.689000 Vminpu=0.95 Vmaxpu=1.05 Daily=LoadShapeLoadDefault
New load.S120P Bus=120.1 Phases=1 Model=1 kv=0.24 kw=0.756000 kvar=0.252000 Vminpu=0.95 Vmaxpu=1.05 Daily=LoadShapeLoadDefault
New load.S121P Bus=121.1 Phases=1 Model=1 kv=0.24 kw=0.700000 kvar=0.233000 Vminpu=0.95 Vmaxpu=1.05 Daily=LoadShapeLoadDefault
New load.S122P Bus=122.1 Phases=1 Model=1 kv=0.24 kw=0.690000 kvar=0.230000 Vminpu=0.95 Vmaxpu=1.05 Daily=LoadShapeLoadDefault
New load.S123P Bus=123.1 Phases=1 Model=1 kv=0.24 kw=0.983000 kvar=0.328000 Vminpu=0.95 Vmaxpu=1.05 Daily=LoadShapeLoadDefault
New load.S124P Bus=124.1 Phases=1 Model=1 kv=0.24 kw=0.797000 kvar=0.266000 Vminpu=0.95 Vmaxpu=1.05 Daily=LoadShapeLoadDefault
New load.S125P Bus=125.1 Phases=1 Model=1 kv=0.24 kw=1.345000 kvar=0.448000 Vminpu=0.95 Vmaxpu=1.05 Daily=LoadShapeLoadDefault
New load.S126P Bus=126.1 Phases=1 Model=1 kv=0.24 kw=1.126000 kvar=0.375000 Vminpu=0.95 Vmaxpu=1.05 Daily=LoadShapeLoadDefault
New load.S127P Bus=127.1 Phases=1 Model=1 kv=0.24 kw=0.000000 kvar=0.000000 Vminpu=0.95 Vmaxpu=1.05 Daily=LoadShapeLoadDefault
New load.S128P Bus=128.1 Phases=1 Model=1 kv=0.24 kw=0.000000 kvar=0.000000 Vminpu=0.95 Vmaxpu=1.05 Daily=LoadShapeLoadDefault
New load.S129P Bus=129.1 Phases=1 Model=1 kv=0.24 kw=0.000000 kvar=0.000000 Vminpu=0.95 Vmaxpu=1.05 Daily=LoadShapeLoadDefault
New load.S130P Bus=130.1 Phases=1 Model=1 kv=0.24 kw=0.000000 kvar=0.000000 Vminpu=0.95 Vmaxpu=1.05 Daily=LoadShapeLoadDefault
New load.S131P Bus=131.1 Phases=1 Model=1 kv=0.24 kw=0.000000 kvar=0.000000 Vminpu=0.95 Vmaxpu=1.05 Daily=LoadShapeLoadDefault
New load.S132P Bus=132.1 Phases=1 Model=1 kv=0.24 kw=0.000000 kvar=0.000000 Vminpu=0.95 Vmaxpu=1.05 Daily=LoadShapeLoadDefault
New load.S133P Bus=133.1 Phases=1 Model=1 kv=0.24 kw=0.000000 kvar=0.000000 Vminpu=0.95 Vmaxpu=1.05 Daily=LoadShapeLoadDefault
New load.S134P Bus=134.1 Phases=1 Model=1 kv=0.24 kw=1.550000 kvar=0.517000 Vminpu=0.95 Vmaxpu=1.05 Daily=LoadShapeLoadDefault
New load.S135P Bus=135.1 Phases=1 Model=1 kv=0.24 kw=0.733000 kvar=0.244000 Vminpu=0.95 Vmaxpu=1.05 Daily=LoadShapeLoadDefault
New load.S136P Bus=136.1 Phases=1 Model=1 kv=0.24 kw=0.897000 kvar=0.299000 Vminpu=0.95 Vmaxpu=1.05 Daily=LoadShapeLoadDefault
New load.S137P Bus=137.1 Phases=1 Model=1 kv=0.24 kw=0.710000 kvar=0.237000 Vminpu=0.95 Vmaxpu=1.05 Daily=LoadShapeLoadDefault
New load.S138P Bus=138.1 Phases=1 Model=1 kv=0.24 kw=0.895000 kvar=0.298000 Vminpu=0.95 Vmaxpu=1.05 Daily=LoadShapeLoadDefault
New load.S139P Bus=139.1 Phases=1 Model=1 kv=0.24 kw=0.726000 kvar=0.242000 Vminpu=0.95 Vmaxpu=1.05 Daily=LoadShapeLoadDefault
New load.S140P Bus=140.1 Phases=1 Model=1 kv=0.24 kw=0.646000 kvar=0.215000 Vminpu=0.95 Vmaxpu=1.05 Daily=LoadShapeLoadDefault
New load.S141P Bus=141.1 Phases=1 Model=1 kv=0.24 kw=0.777000 kvar=0.259000 Vminpu=0.95 Vmaxpu=1.05 Daily=LoadShapeLoadDefault
New load.S142P Bus=142.1 Phases=1 Model=1 kv=0.24 kw=0.845000 kvar=0.282000 Vminpu=0.95 Vmaxpu=1.05 Daily=LoadShapeLoadDefault
New load.S143P Bus=143.1 Phases=1 Model=1 kv=0.24 kw=0.803000 kvar=0.268000 Vminpu=0.95 Vmaxpu=1.05 Daily=LoadShapeLoadDefault
New load.S144P Bus=144.1 Phases=1 Model=1 kv=0.24 kw=0.952000 kvar=0.317000 Vminpu=0.95 Vmaxpu=1.05 Daily=LoadShapeLoadDefault
New load.S145P Bus=145.1 Phases=1 Model=1 kv=0.24 kw=0.727000 kvar=0.242000 Vminpu=0.95 Vmaxpu=1.05 Daily=LoadShapeLoadDefault
New load.S146P Bus=146.1 Phases=1 Model=1 kv=0.24 kw=0.000000 kvar=0.000000 Vminpu=0.95 Vmaxpu=1.05 Daily=LoadShapeLoadDefault
New load.S147P Bus=147.1 Phases=1 Model=1 kv=0.24 kw=0.000000 kvar=0.000000 Vminpu=0.95 Vmaxpu=1.05 Daily=LoadShapeLoadDefault
New load.S148P Bus=148.1 Phases=1 Model=1 kv=0.24 kw=0.000000 kvar=0.000000 Vminpu=0.95 Vmaxpu=1.05 Daily=LoadShapeLoadDefault
New load.S149P Bus=149.1 Phases=1 Model=1 kv=0.24 kw=0.000000 kvar=0.000000 Vminpu=0.95 Vmaxpu=1.05 Daily=LoadShapeLoadDefault
New load.S150P Bus=150.1 Phases=1 Model=1 kv=0.24 kw=0.000000 kvar=0.000000 Vminpu=0.95 Vmaxpu=1.05 Daily=LoadShapeLoadDefault
New load.S151P Bus=151.1 Phases=1 Model=1 kv=0.24 kw=0.000000 kvar=0.000000 Vminpu=0.95 Vmaxpu=1.05 Daily=LoadShapeLoadDefault
New load.S152P Bus=152.1 Phases=1 Model=1 kv=0.24 kw=0.000000 kvar=0.000000 Vminpu=0.95 Vmaxpu=1.05 Daily=LoadShapeLoadDefault
New load.S153P Bus=153.1 Phases=1 Model=1 kv=0.24 kw=0.673000 kvar=0.224000 Vminpu=0.95 Vmaxpu=1.05 Daily=LoadShapeLoadDefault
New load.S154P Bus=154.1 Phases=1 Model=1 kv=0.24 kw=1.106000 kvar=0.369000 Vminpu=0.95 Vmaxpu=1.05 Daily=LoadShapeLoadDefault
New load.S155P Bus=155.1 Phases=1 Model=1 kv=0.24 kw=1.400000 kvar=0.467000 Vminpu=0.95 Vmaxpu=1.05 Daily=LoadShapeLoadDefault
New load.S156P Bus=156.1 Phases=1 Model=1 kv=0.24 kw=1.523000 kvar=0.508000 Vminpu=0.95 Vmaxpu=1.05 Daily=LoadShapeLoadDefault
New load.S157P Bus=157.1 Phases=1 Model=1 kv=0.24 kw=2.151000 kvar=0.717000 Vminpu=0.95 Vmaxpu=1.05 Daily=LoadShapeLoadDefault
New load.S158P Bus=158.1 Phases=1 Model=1 kv=0.24 kw=0.777000 kvar=0.259000 Vminpu=0.95 Vmaxpu=1.05 Daily=LoadShapeLoadDefault
New load.S159P Bus=159.1 Phases=1 Model=1 kv=0.24 kw=0.723000 kvar=0.241000 Vminpu=0.95 Vmaxpu=1.05 Daily=LoadShapeLoadDefault
New load.S160P Bus=160.1 Phases=1 Model=1 kv=0.24 kw=0.648000 kvar=0.216000 Vminpu=0.95 Vmaxpu=1.05 Daily=LoadShapeLoadDefault
New load.S161P Bus=161.1 Phases=1 Model=1 kv=0.24 kw=0.698000 kvar=0.233000 Vminpu=0.95 Vmaxpu=1.05 Daily=LoadShapeLoadDefault
New load.S162P Bus=162.1 Phases=1 Model=1 kv=0.24 kw=0.740000 kvar=0.247000 Vminpu=0.95 Vmaxpu=1.05 Daily=LoadShapeLoadDefault
New load.S163P Bus=163.1 Phases=1 Model=1 kv=0.24 kw=0.892000 kvar=0.297000 Vminpu=0.95 Vmaxpu=1.05 Daily=LoadShapeLoadDefault
New load.S164P Bus=164.1 Phases=1 Model=1 kv=0.24 kw=0.746000 kvar=0.249000 Vminpu=0.95 Vmaxpu=1.05 Daily=LoadShapeLoadDefault
New load.S165P Bus=165.1 Phases=1 Model=1 kv=0.24 kw=0.000000 kvar=0.000000 Vminpu=0.95 Vmaxpu=1.05 Daily=LoadShapeLoadDefault
New load.S166P Bus=166.1 Phases=1 Model=1 kv=0.24 kw=0.000000 kvar=0.000000 Vminpu=0.95 Vmaxpu=1.05 Daily=LoadShapeLoadDefault
New load.S167P Bus=167.1 Phases=1 Model=1 kv=0.24 kw=0.000000 kvar=0.000000 Vminpu=0.95 Vmaxpu=1.05 Daily=LoadShapeLoadDefault
New load.S168P Bus=168.1 Phases=1 Model=1 kv=0.24 kw=0.000000 kvar=0.000000 Vminpu=0.95 Vmaxpu=1.05 Daily=LoadShapeLoadDefault
New load.S169P Bus=169.1 Phases=1 Model=1 kv=0.24 kw=0.000000 kvar=0.000000 Vminpu=0.95 Vmaxpu=1.05 Daily=LoadShapeLoadDefault
New load.S170P Bus=170.1 Phases=1 Model=1 kv=0.24 kw=0.000000 kvar=0.000000 Vminpu=0.95 Vmaxpu=1.05 Daily=LoadShapeLoadDefault
New load.S171P Bus=171.1 Phases=1 Model=1 kv=0.24 kw=0.000000 kvar=0.000000 Vminpu=0.95 Vmaxpu=1.05 Daily=LoadShapeLoadDefault
New load.S172P Bus=172.1 Phases=1 Model=1 kv=0.24 kw=1.269000 kvar=0.423000 Vminpu=0.95 Vmaxpu=1.05 Daily=LoadShapeLoadDefault
New load.S173P Bus=173.1 Phases=1 Model=1 kv=0.24 kw=0.890000 kvar=0.297000 Vminpu=0.95 Vmaxpu=1.05 Daily=LoadShapeLoadDefault
New load.S174P Bus=174.1 Phases=1 Model=1 kv=0.24 kw=1.491000 kvar=0.497000 Vminpu=0.95 Vmaxpu=1.05 Daily=LoadShapeLoadDefault
New load.S175P Bus=175.1 Phases=1 Model=1 kv=0.24 kw=1.448000 kvar=0.483000 Vminpu=0.95 Vmaxpu=1.05 Daily=LoadShapeLoadDefault
New load.S176P Bus=176.1 Phases=1 Model=1 kv=0.24 kw=0.828000 kvar=0.276000 Vminpu=0.95 Vmaxpu=1.05 Daily=LoadShapeLoadDefault
New load.S177P Bus=177.1 Phases=1 Model=1 kv=0.24 kw=0.655000 kvar=0.218000 Vminpu=0.95 Vmaxpu=1.05 Daily=LoadShapeLoadDefault
New load.S178P Bus=178.1 Phases=1 Model=1 kv=0.24 kw=0.637000 kvar=0.212000 Vminpu=0.95 Vmaxpu=1.05 Daily=LoadShapeLoadDefault
New load.S179P Bus=179.1 Phases=1 Model=1 kv=0.24 kw=0.842000 kvar=0.281000 Vminpu=0.95 Vmaxpu=1.05 Daily=LoadShapeLoadDefault
New load.S180P Bus=180.1 Phases=1 Model=1 kv=0.24 kw=1.145000 kvar=0.382000 Vminpu=0.95 Vmaxpu=1.05 Daily=LoadShapeLoadDefault
New load.S181P Bus=181.1 Phases=1 Model=1 kv=0.24 kw=0.817000 kvar=0.272000 Vminpu=0.95 Vmaxpu=1.05 Daily=LoadShapeLoadDefault
New load.S182P Bus=182.1 Phases=1 Model=1 kv=0.24 kw=0.928000 kvar=0.309000 Vminpu=0.95 Vmaxpu=1.05 Daily=LoadShapeLoadDefault
New load.S183P Bus=183.1 Phases=1 Model=1 kv=0.24 kw=1.193000 kvar=0.398000 Vminpu=0.95 Vmaxpu=1.05 Daily=LoadShapeLoadDefault
New load.S184P Bus=184.1 Phases=1 Model=1 kv=0.24 kw=0.000000 kvar=0.000000 Vminpu=0.95 Vmaxpu=1.05 Daily=LoadShapeLoadDefault
New load.S185P Bus=185.1 Phases=1 Model=1 kv=0.24 kw=0.000000 kvar=0.000000 Vminpu=0.95 Vmaxpu=1.05 Daily=LoadShapeLoadDefault
New load.S186P Bus=186.1 Phases=1 Model=1 kv=0.24 kw=0.000000 kvar=0.000000 Vminpu=0.95 Vmaxpu=1.05 Daily=LoadShapeLoadDefault
New load.S187P Bus=187.1 Phases=1 Model=1 kv=0.24 kw=0.000000 kvar=0.000000 Vminpu=0.95 Vmaxpu=1.05 Daily=LoadShapeLoadDefault
New load.S188P Bus=188.1 Phases=1 Model=1 kv=0.24 kw=0.000000 kvar=0.000000 Vminpu=0.95 Vmaxpu=1.05 Daily=LoadShapeLoadDefault
New load.S189P Bus=189.1 Phases=1 Model=1 kv=0.24 kw=0.777000 kvar=0.259000 Vminpu=0.95 Vmaxpu=1.05 Daily=LoadShapeLoadDefault
New load.S190P Bus=190.1 Phases=1 Model=1 kv=0.24 kw=1.355000 kvar=0.452000 Vminpu=0.95 Vmaxpu=1.05 Daily=LoadShapeLoadDefault
New load.S191P Bus=191.1 Phases=1 Model=1 kv=0.24 kw=0.936000 kvar=0.312000 Vminpu=0.95 Vmaxpu=1.05 Daily=LoadShapeLoadDefault
New load.S192P Bus=192.1 Phases=1 Model=1 kv=0.24 kw=1.222000 kvar=0.407000 Vminpu=0.95 Vmaxpu=1.05 Daily=LoadShapeLoadDefault
New load.S193P Bus=193.1 Phases=1 Model=1 kv=0.24 kw=1.830000 kvar=0.610000 Vminpu=0.95 Vmaxpu=1.05 Daily=LoadShapeLoadDefault
New load.S194P Bus=194.1 Phases=1 Model=1 kv=0.24 kw=2.224000 kvar=0.741000 Vminpu=0.95 Vmaxpu=1.05 Daily=LoadShapeLoadDefault
New load.S195P Bus=195.1 Phases=1 Model=1 kv=0.24 kw=2.010000 kvar=0.670000 Vminpu=0.95 Vmaxpu=1.05 Daily=LoadShapeLoadDefault
New load.S196P Bus=196.1 Phases=1 Model=1 kv=0.24 kw=2.062000 kvar=0.687000 Vminpu=0.95 Vmaxpu=1.05 Daily=LoadShapeLoadDefault
New load.S197P Bus=197.1 Phases=1 Model=1 kv=0.24 kw=0.000000 kvar=0.000000 Vminpu=0.95 Vmaxpu=1.05 Daily=LoadShapeLoadDefault
New load.S198P Bus=198.1 Phases=1 Model=1 kv=0.24 kw=0.000000 kvar=0.000000 Vminpu=0.95 Vmaxpu=1.05 Daily=LoadShapeLoadDefault
New load.S199P Bus=199.1 Phases=1 Model=1 kv=0.24 kw=0.000000 kvar=0.000000 Vminpu=0.95 Vmaxpu=1.05 Daily=LoadShapeLoadDefault
New load.S200P Bus=200.1 Phases=1 Model=1 kv=0.24 kw=0.000000 kvar=0.000000 Vminpu=0.95 Vmaxpu=1.05 Daily=LoadShapeLoadDefault
...
